tests/fuzzer/corpus_json/24_columnar_21_random_021.json
{
  "version": "1.0",
  "type": "input",
  "is_batch": false,
  "attributes": {
    "node": [
      "id",
      "u_rated"
    ],
    "source": [
      "id",
      "node",
      "status",
      "u_ref",
      "u_ref_angle",
      "sk",
      "rx_ratio",
      "z01_ratio"
    ],
    "line": [
      "id",
      "from_node",
      "to_node",
      "from_status",
      "to_status",
      "r1",
      "x1",
      "c1",
      "tan1",
      "r0",
      "x0",
      "c0",
      "tan0",
      "i_n"
    ]
  },
  "data": {
    "node": [
      [
        0,
        110000.0
      ],
      [
        1,
        110000.0
      ],
      [
        2,
        110000.0
      ],
      [
        3,
        110000.0
      ]
    ],
    "source": [
      [
        4,
        0,
        1,
        1.0269999880809442,
        0.0,
        689797947.5251456,
        0.2395502360287256,
        1.0
      ],
      [
        5,
        3,
        1,
        1.0,
        0.0,
        792654094.8644264,
        0.1,
        1.0
      ]
    ],
    "line": [
      [
        6,
        0,
        1,
        1,
        1,
        4.039271509767138,
        2.5622811981879656,
        5.050841534700116e-07,
        0.0,
        0.3,
        0.3,
        1e-09,
        0.0,
        243.69579986124842
      ],
      [
        7,
        1,
        2,
        1,
        1,
        0.01590315305148582,
        1.855233458160539,
        5.853624971821242e-07,
        0.0,
        0.3,
        0.3,
        1e-09,
        0.0,
        78.5721155514782
      ],
      [
        8,
        2,
        3,
        1,
        1,
        3.9687551092848254,
        1.1612635821660984,
        2.3269495139955363e-07,
        0.0,
        0.3,
        0.3,
        1e-09,
        0.0,
        51.91206248467679
      ]
    ]
  }
}
